14
ID: 1605627557066618850
C  1.304250000000  0.016210000000  -1.578780000000
C  0.837350000000  -1.147970000000  -2.197740000000
C  -0.509060000000  -1.258400000000  -2.557240000000
C  -1.390500000000  -0.204720000000  -2.298250000000
C  0.423950000000  1.077520000000  -1.316180000000
C  -0.926860000000  0.960840000000  -1.679440000000
H  2.349100000000  0.091020000000  -1.304580000000
H  1.519110000000  -1.964270000000  -2.398640000000
H  -0.869090000000  -2.159790000000  -3.036140000000
N  0.895140000000  2.257220000000  -0.689410000000
H  -2.432800000000  -0.291080000000  -2.576930000000
H  -1.618330000000  1.770780000000  -1.483570000000
H  0.254910000000  3.040630000000  -0.493360000000
H  1.885450000000  2.350270000000  -0.419790000000
